<?xml version="1.0" encoding="UTF-8"?>
<connections xmlns:xsi="http://www.w3.org/2001/XMLSchema-instance" xsi:noNamespaceSchemaLocation="http://sumo.dlr.de/xsd/connections_file.xsd">
    <connection from="L1" to="L5" fromLane="0" toLane="0"/>
    <connection from="L1" to="L62" fromLane="0" toLane="0"/>
    <connection from="L1" to="L63" fromLane="0" toLane="0"/>

    <connection from="L3" to="L8" fromLane="0" toLane="0"/>
    <connection from="L3" to="L61" fromLane="0" toLane="0"/>
    <connection from="L3" to="L65" fromLane="0" toLane="0"/>

    <connection from="L6" to="L2" fromLane="0" toLane="0"/>
    <connection from="L6" to="L62" fromLane="0" toLane="0"/>
    <connection from="L6" to="L63" fromLane="0" toLane="0"/>

    <connection from="L7" to="L4" fromLane="0" toLane="0"/>
    <connection from="L7" to="L61" fromLane="0" toLane="0"/>
    <connection from="L7" to="L65" fromLane="0" toLane="0"/>

    <connection from="L10" to="L13" fromLane="0" toLane="0"/>
    <connection from="L10" to="L68" fromLane="0" toLane="0"/>
    <connection from="L10" to="L64" fromLane="0" toLane="0"/>

    <connection from="L11" to="L66" fromLane="0" toLane="0"/>
    <connection from="L11" to="L67" fromLane="0" toLane="0"/>
    <connection from="L11" to="L15" fromLane="0" toLane="0"/>

    <connection from="L14" to="L68" fromLane="0" toLane="0"/>
    <connection from="L14" to="L64" fromLane="0" toLane="0"/>
    <connection from="L14" to="L9" fromLane="0" toLane="0"/>

    <connection from="L16" to="L12" fromLane="0" toLane="0"/>
    <connection from="L16" to="L66" fromLane="0" toLane="0"/>
    <connection from="L16" to="L67" fromLane="0" toLane="0"/>

    <connection from="L61" to="L63" fromLane="0" toLane="0"/>
    <connection from="L61" to="L2" fromLane="0" toLane="0"/>
    <connection from="L61" to="L5" fromLane="0" toLane="0"/>

    <connection from="L62" to="L65" fromLane="0" toLane="0"/>
    <connection from="L62" to="L4" fromLane="0" toLane="0"/>
    <connection from="L62" to="L8" fromLane="0" toLane="0"/>

    <connection from="L63" to="L68" fromLane="0" toLane="0"/>
    <connection from="L63" to="L9" fromLane="0" toLane="0"/>
    <connection from="L63" to="L13" fromLane="0" toLane="0"/>

    <connection from="L64" to="L62" fromLane="0" toLane="0"/>
    <connection from="L64" to="L2" fromLane="0" toLane="0"/>
    <connection from="L64" to="L5" fromLane="0" toLane="0"/>

    <connection from="L65" to="L67" fromLane="0" toLane="0"/>
    <connection from="L65" to="L12" fromLane="0" toLane="0"/>
    <connection from="L65" to="L15" fromLane="0" toLane="0"/>

    <connection from="L66" to="L61" fromLane="0" toLane="0"/>
    <connection from="L66" to="L4" fromLane="0" toLane="0"/>
    <connection from="L66" to="L8" fromLane="0" toLane="0"/>

    <connection from="L67" to="L64" fromLane="0" toLane="0"/>
    <connection from="L67" to="L9" fromLane="0" toLane="0"/>
    <connection from="L67" to="L13" fromLane="0" toLane="0"/>

    <connection from="L68" to="L66" fromLane="0" toLane="0"/>
    <connection from="L68" to="L12" fromLane="0" toLane="0"/>
    <connection from="L68" to="L15" fromLane="0" toLane="0"/>

</connections>
