<?xml version="1.0" encoding="UTF-8"?>

<!-- generated on Mon Jan  5 14:38:25 2015 by SUMO netconvert Version 0.22.0
<?xml version="1.0" encoding="UTF-8"?>

<configuration xmlns:xsi="http://www.w3.org/2001/XMLSchema-instance" xsi:noNamespaceSchemaLocation="http://sumo.dlr.de/xsd/netconvertConfiguration.xsd">

    <input>
        <node-files value="sample.nod.xml"/>
        <edge-files value="sample.edg.xml"/>
        <connection-files value="sample.con.xml"/>
        <type-files value="sample.typ.xml"/>
    </input>

    <output>
        <output-file value="sample.net.xml"/>
    </output>

</configuration>
-->

<net version="0.13" xmlns:xsi="http://www.w3.org/2001/XMLSchema-instance" xsi:noNamespaceSchemaLocation="http://sumo.dlr.de/xsd/net_file.xsd">

    <location netOffset="200.00,200.00" convBoundary="0.00,0.00,500.00,500.00" origBoundary="-200.00,-200.00,300.00,300.00" projParameter="!"/>

    <edge id=":1_0" function="internal">
        <lane id=":1_0_0" index="0" speed="13.89" length="5.00" shape="198.35,204.75 198.16,203.39 197.57,202.42 196.61,201.84 195.25,201.65"/>
    </edge>
    <edge id=":1_1" function="internal">
        <lane id=":1_1_0" index="0" speed="13.89" length="9.50" shape="198.35,204.75 198.35,195.25"/>
    </edge>
    <edge id=":1_2" function="internal">
        <lane id=":1_2_0" index="0" speed="13.89" length="3.18" shape="198.35,204.75 198.75,201.95 198.93,201.65"/>
    </edge>
    <edge id=":1_12" function="internal">
        <lane id=":1_12_0" index="0" speed="13.89" length="7.14" shape="198.93,201.65 199.95,199.95 201.95,198.75 204.75,198.35"/>
    </edge>
    <edge id=":1_3" function="internal">
        <lane id=":1_3_0" index="0" speed="13.89" length="5.00" shape="204.75,201.65 203.39,201.84 202.42,202.43 201.84,203.39 201.65,204.75"/>
    </edge>
    <edge id=":1_4" function="internal">
        <lane id=":1_4_0" index="0" speed="13.89" length="9.50" shape="204.75,201.65 195.25,201.65"/>
    </edge>
    <edge id=":1_5" function="internal">
        <lane id=":1_5_0" index="0" speed="13.89" length="3.18" shape="204.75,201.65 201.95,201.25 201.65,201.07"/>
    </edge>
    <edge id=":1_13" function="internal">
        <lane id=":1_13_0" index="0" speed="13.89" length="7.14" shape="201.65,201.07 199.95,200.05 198.75,198.05 198.35,195.25"/>
    </edge>
    <edge id=":1_6" function="internal">
        <lane id=":1_6_0" index="0" speed="13.89" length="5.00" shape="201.65,195.25 201.84,196.61 202.43,197.58 203.39,198.16 204.75,198.35"/>
    </edge>
    <edge id=":1_7" function="internal">
        <lane id=":1_7_0" index="0" speed="13.89" length="9.50" shape="201.65,195.25 201.65,204.75"/>
    </edge>
    <edge id=":1_8" function="internal">
        <lane id=":1_8_0" index="0" speed="13.89" length="3.18" shape="201.65,195.25 201.25,198.05 201.07,198.35"/>
    </edge>
    <edge id=":1_14" function="internal">
        <lane id=":1_14_0" index="0" speed="13.89" length="7.14" shape="201.07,198.35 200.05,200.05 198.05,201.25 195.25,201.65"/>
    </edge>
    <edge id=":1_9" function="internal">
        <lane id=":1_9_0" index="0" speed="13.89" length="5.00" shape="195.25,198.35 196.61,198.16 197.57,197.57 198.16,196.61 198.35,195.25"/>
    </edge>
    <edge id=":1_10" function="internal">
        <lane id=":1_10_0" index="0" speed="13.89" length="9.50" shape="195.25,198.35 204.75,198.35"/>
    </edge>
    <edge id=":1_11" function="internal">
        <lane id=":1_11_0" index="0" speed="13.89" length="3.18" shape="195.25,198.35 198.05,198.75 198.35,198.93"/>
    </edge>
    <edge id=":1_15" function="internal">
        <lane id=":1_15_0" index="0" speed="13.89" length="7.14" shape="198.35,198.93 200.05,199.95 201.25,201.95 201.65,204.75"/>
    </edge>
    <edge id=":2_0" function="internal">
        <lane id=":2_0_0" index="0" speed="13.89" length="5.00" shape="298.35,204.75 298.16,203.39 297.58,202.42 296.61,201.84 295.25,201.65"/>
    </edge>
    <edge id=":2_1" function="internal">
        <lane id=":2_1_0" index="0" speed="13.89" length="9.50" shape="298.35,204.75 298.35,195.25"/>
    </edge>
    <edge id=":2_2" function="internal">
        <lane id=":2_2_0" index="0" speed="13.89" length="3.18" shape="298.35,204.75 298.75,201.95 298.93,201.65"/>
    </edge>
    <edge id=":2_12" function="internal">
        <lane id=":2_12_0" index="0" speed="13.89" length="7.14" shape="298.93,201.65 299.95,199.95 301.95,198.75 304.75,198.35"/>
    </edge>
    <edge id=":2_3" function="internal">
        <lane id=":2_3_0" index="0" speed="13.89" length="5.00" shape="304.75,201.65 303.39,201.84 302.42,202.43 301.84,203.39 301.65,204.75"/>
    </edge>
    <edge id=":2_4" function="internal">
        <lane id=":2_4_0" index="0" speed="13.89" length="9.50" shape="304.75,201.65 295.25,201.65"/>
    </edge>
    <edge id=":2_5" function="internal">
        <lane id=":2_5_0" index="0" speed="13.89" length="3.18" shape="304.75,201.65 301.95,201.25 301.65,201.07"/>
    </edge>
    <edge id=":2_13" function="internal">
        <lane id=":2_13_0" index="0" speed="13.89" length="7.14" shape="301.65,201.07 299.95,200.05 298.75,198.05 298.35,195.25"/>
    </edge>
    <edge id=":2_6" function="internal">
        <lane id=":2_6_0" index="0" speed="13.89" length="5.00" shape="301.65,195.25 301.84,196.61 302.42,197.57 303.39,198.16 304.75,198.35"/>
    </edge>
    <edge id=":2_7" function="internal">
        <lane id=":2_7_0" index="0" speed="13.89" length="9.50" shape="301.65,195.25 301.65,204.75"/>
    </edge>
    <edge id=":2_8" function="internal">
        <lane id=":2_8_0" index="0" speed="13.89" length="3.18" shape="301.65,195.25 301.25,198.05 301.07,198.35"/>
    </edge>
    <edge id=":2_14" function="internal">
        <lane id=":2_14_0" index="0" speed="13.89" length="7.14" shape="301.07,198.35 300.05,200.05 298.05,201.25 295.25,201.65"/>
    </edge>
    <edge id=":2_9" function="internal">
        <lane id=":2_9_0" index="0" speed="13.89" length="5.00" shape="295.25,198.35 296.61,198.16 297.58,197.57 298.16,196.61 298.35,195.25"/>
    </edge>
    <edge id=":2_10" function="internal">
        <lane id=":2_10_0" index="0" speed="13.89" length="9.50" shape="295.25,198.35 304.75,198.35"/>
    </edge>
    <edge id=":2_11" function="internal">
        <lane id=":2_11_0" index="0" speed="13.89" length="3.18" shape="295.25,198.35 298.05,198.75 298.35,198.93"/>
    </edge>
    <edge id=":2_15" function="internal">
        <lane id=":2_15_0" index="0" speed="13.89" length="7.14" shape="298.35,198.93 300.05,199.95 301.25,201.95 301.65,204.75"/>
    </edge>
    <edge id=":3_0" function="internal">
        <lane id=":3_0_0" index="0" speed="13.89" length="5.00" shape="198.35,304.75 198.16,303.39 197.57,302.42 196.61,301.84 195.25,301.65"/>
    </edge>
    <edge id=":3_1" function="internal">
        <lane id=":3_1_0" index="0" speed="13.89" length="9.50" shape="198.35,304.75 198.35,295.25"/>
    </edge>
    <edge id=":3_2" function="internal">
        <lane id=":3_2_0" index="0" speed="13.89" length="3.18" shape="198.35,304.75 198.75,301.95 198.93,301.65"/>
    </edge>
    <edge id=":3_12" function="internal">
        <lane id=":3_12_0" index="0" speed="13.89" length="7.14" shape="198.93,301.65 199.95,299.95 201.95,298.75 204.75,298.35"/>
    </edge>
    <edge id=":3_3" function="internal">
        <lane id=":3_3_0" index="0" speed="13.89" length="5.00" shape="204.75,301.65 203.39,301.84 202.42,302.42 201.84,303.39 201.65,304.75"/>
    </edge>
    <edge id=":3_4" function="internal">
        <lane id=":3_4_0" index="0" speed="13.89" length="9.50" shape="204.75,301.65 195.25,301.65"/>
    </edge>
    <edge id=":3_5" function="internal">
        <lane id=":3_5_0" index="0" speed="13.89" length="3.18" shape="204.75,301.65 201.95,301.25 201.65,301.07"/>
    </edge>
    <edge id=":3_13" function="internal">
        <lane id=":3_13_0" index="0" speed="13.89" length="7.14" shape="201.65,301.07 199.95,300.05 198.75,298.05 198.35,295.25"/>
    </edge>
    <edge id=":3_6" function="internal">
        <lane id=":3_6_0" index="0" speed="13.89" length="5.00" shape="201.65,295.25 201.84,296.61 202.43,297.58 203.39,298.16 204.75,298.35"/>
    </edge>
    <edge id=":3_7" function="internal">
        <lane id=":3_7_0" index="0" speed="13.89" length="9.50" shape="201.65,295.25 201.65,304.75"/>
    </edge>
    <edge id=":3_8" function="internal">
        <lane id=":3_8_0" index="0" speed="13.89" length="3.18" shape="201.65,295.25 201.25,298.05 201.07,298.35"/>
    </edge>
    <edge id=":3_14" function="internal">
        <lane id=":3_14_0" index="0" speed="13.89" length="7.14" shape="201.07,298.35 200.05,300.05 198.05,301.25 195.25,301.65"/>
    </edge>
    <edge id=":3_9" function="internal">
        <lane id=":3_9_0" index="0" speed="13.89" length="5.00" shape="195.25,298.35 196.61,298.16 197.57,297.58 198.16,296.61 198.35,295.25"/>
    </edge>
    <edge id=":3_10" function="internal">
        <lane id=":3_10_0" index="0" speed="13.89" length="9.50" shape="195.25,298.35 204.75,298.35"/>
    </edge>
    <edge id=":3_11" function="internal">
        <lane id=":3_11_0" index="0" speed="13.89" length="3.18" shape="195.25,298.35 198.05,298.75 198.35,298.93"/>
    </edge>
    <edge id=":3_15" function="internal">
        <lane id=":3_15_0" index="0" speed="13.89" length="7.14" shape="198.35,298.93 200.05,299.95 201.25,301.95 201.65,304.75"/>
    </edge>
    <edge id=":4_0" function="internal">
        <lane id=":4_0_0" index="0" speed="13.89" length="5.00" shape="298.35,304.75 298.16,303.39 297.58,302.42 296.61,301.84 295.25,301.65"/>
    </edge>
    <edge id=":4_1" function="internal">
        <lane id=":4_1_0" index="0" speed="13.89" length="9.50" shape="298.35,304.75 298.35,295.25"/>
    </edge>
    <edge id=":4_2" function="internal">
        <lane id=":4_2_0" index="0" speed="13.89" length="3.18" shape="298.35,304.75 298.75,301.95 298.93,301.65"/>
    </edge>
    <edge id=":4_12" function="internal">
        <lane id=":4_12_0" index="0" speed="13.89" length="7.14" shape="298.93,301.65 299.95,299.95 301.95,298.75 304.75,298.35"/>
    </edge>
    <edge id=":4_3" function="internal">
        <lane id=":4_3_0" index="0" speed="13.89" length="5.00" shape="304.75,301.65 303.39,301.84 302.42,302.42 301.84,303.39 301.65,304.75"/>
    </edge>
    <edge id=":4_4" function="internal">
        <lane id=":4_4_0" index="0" speed="13.89" length="9.50" shape="304.75,301.65 295.25,301.65"/>
    </edge>
    <edge id=":4_5" function="internal">
        <lane id=":4_5_0" index="0" speed="13.89" length="3.18" shape="304.75,301.65 301.95,301.25 301.65,301.07"/>
    </edge>
    <edge id=":4_13" function="internal">
        <lane id=":4_13_0" index="0" speed="13.89" length="7.14" shape="301.65,301.07 299.95,300.05 298.75,298.05 298.35,295.25"/>
    </edge>
    <edge id=":4_6" function="internal">
        <lane id=":4_6_0" index="0" speed="13.89" length="5.00" shape="301.65,295.25 301.84,296.61 302.42,297.58 303.39,298.16 304.75,298.35"/>
    </edge>
    <edge id=":4_7" function="internal">
        <lane id=":4_7_0" index="0" speed="13.89" length="9.50" shape="301.65,295.25 301.65,304.75"/>
    </edge>
    <edge id=":4_8" function="internal">
        <lane id=":4_8_0" index="0" speed="13.89" length="3.18" shape="301.65,295.25 301.25,298.05 301.07,298.35"/>
    </edge>
    <edge id=":4_14" function="internal">
        <lane id=":4_14_0" index="0" speed="13.89" length="7.14" shape="301.07,298.35 300.05,300.05 298.05,301.25 295.25,301.65"/>
    </edge>
    <edge id=":4_9" function="internal">
        <lane id=":4_9_0" index="0" speed="13.89" length="5.00" shape="295.25,298.35 296.61,298.16 297.58,297.58 298.16,296.61 298.35,295.25"/>
    </edge>
    <edge id=":4_10" function="internal">
        <lane id=":4_10_0" index="0" speed="13.89" length="9.50" shape="295.25,298.35 304.75,298.35"/>
    </edge>
    <edge id=":4_11" function="internal">
        <lane id=":4_11_0" index="0" speed="13.89" length="3.18" shape="295.25,298.35 298.05,298.75 298.35,298.93"/>
    </edge>
    <edge id=":4_15" function="internal">
        <lane id=":4_15_0" index="0" speed="13.89" length="7.14" shape="298.35,298.93 300.05,299.95 301.25,301.95 301.65,304.75"/>
    </edge>
    <edge id=":81_0" function="internal">
        <lane id=":81_0_0" index="0" speed="13.89" length="0.10" shape="198.35,100.00 198.35,100.00"/>
    </edge>
    <edge id=":81_1" function="internal">
        <lane id=":81_1_0" index="0" speed="13.89" length="2.41" shape="198.35,100.00 199.17,98.76 200.00,98.35"/>
    </edge>
    <edge id=":81_4" function="internal">
        <lane id=":81_4_0" index="0" speed="13.89" length="2.41" shape="200.00,98.35 200.82,98.76 201.65,100.00"/>
    </edge>
    <edge id=":81_2" function="internal">
        <lane id=":81_2_0" index="0" speed="13.89" length="0.10" shape="201.65,100.00 201.65,100.00"/>
    </edge>
    <edge id=":81_3" function="internal">
        <lane id=":81_3_0" index="0" speed="13.89" length="2.41" shape="201.65,100.00 200.83,101.24 200.00,101.65"/>
    </edge>
    <edge id=":81_5" function="internal">
        <lane id=":81_5_0" index="0" speed="13.89" length="2.41" shape="200.00,101.65 199.18,101.24 198.35,100.00"/>
    </edge>
    <edge id=":82_0" function="internal">
        <lane id=":82_0_0" index="0" speed="13.89" length="3.85" shape="298.35,101.35 298.44,100.37 298.71,99.47 299.16,98.64 299.79,97.88"/>
    </edge>
    <edge id=":82_1" function="internal">
        <lane id=":82_1_0" index="0" speed="13.89" length="2.41" shape="298.35,101.35 299.17,100.11 300.00,99.70"/>
    </edge>
    <edge id=":82_4" function="internal">
        <lane id=":82_4_0" index="0" speed="13.89" length="2.41" shape="300.00,99.70 300.82,100.11 301.65,101.35"/>
    </edge>
    <edge id=":82_2" function="internal">
        <lane id=":82_2_0" index="0" speed="13.89" length="1.26" shape="302.12,100.21 301.91,100.46 301.77,100.73 301.68,101.03 301.65,101.35"/>
    </edge>
    <edge id=":82_3" function="internal">
        <lane id=":82_3_0" index="0" speed="13.89" length="2.41" shape="302.12,100.21 300.66,100.51 299.79,100.21"/>
    </edge>
    <edge id=":82_5" function="internal">
        <lane id=":82_5_0" index="0" speed="13.89" length="2.41" shape="299.79,100.21 299.49,99.34 299.79,97.88"/>
    </edge>
    <edge id=":83_0" function="internal">
        <lane id=":83_0_0" index="0" speed="13.89" length="0.10" shape="100.00,201.65 100.00,201.65"/>
    </edge>
    <edge id=":83_1" function="internal">
        <lane id=":83_1_0" index="0" speed="13.89" length="2.41" shape="100.00,201.65 98.76,200.83 98.35,200.00"/>
    </edge>
    <edge id=":83_4" function="internal">
        <lane id=":83_4_0" index="0" speed="13.89" length="2.41" shape="98.35,200.00 98.76,199.18 100.00,198.35"/>
    </edge>
    <edge id=":83_2" function="internal">
        <lane id=":83_2_0" index="0" speed="13.89" length="0.10" shape="100.00,198.35 100.00,198.35"/>
    </edge>
    <edge id=":83_3" function="internal">
        <lane id=":83_3_0" index="0" speed="13.89" length="2.41" shape="100.00,198.35 101.24,199.17 101.65,200.00"/>
    </edge>
    <edge id=":83_5" function="internal">
        <lane id=":83_5_0" index="0" speed="13.89" length="2.41" shape="101.65,200.00 101.24,200.82 100.00,201.65"/>
    </edge>
    <edge id=":84_0" function="internal">
        <lane id=":84_0_0" index="0" speed="13.89" length="0.10" shape="400.00,201.65 400.00,201.65"/>
    </edge>
    <edge id=":84_1" function="internal">
        <lane id=":84_1_0" index="0" speed="13.89" length="2.41" shape="400.00,201.65 398.76,200.83 398.35,200.00"/>
    </edge>
    <edge id=":84_4" function="internal">
        <lane id=":84_4_0" index="0" speed="13.89" length="2.41" shape="398.35,200.00 398.76,199.18 400.00,198.35"/>
    </edge>
    <edge id=":84_2" function="internal">
        <lane id=":84_2_0" index="0" speed="13.89" length="0.10" shape="400.00,198.35 400.00,198.35"/>
    </edge>
    <edge id=":84_3" function="internal">
        <lane id=":84_3_0" index="0" speed="13.89" length="2.41" shape="400.00,198.35 401.24,199.17 401.65,200.00"/>
    </edge>
    <edge id=":84_5" function="internal">
        <lane id=":84_5_0" index="0" speed="13.89" length="2.41" shape="401.65,200.00 401.24,200.82 400.00,201.65"/>
    </edge>
    <edge id=":85_0" function="internal">
        <lane id=":85_0_0" index="0" speed="13.89" length="1.26" shape="101.35,301.65 101.03,301.68 100.73,301.77 100.46,301.91 100.21,302.12"/>
    </edge>
    <edge id=":85_1" function="internal">
        <lane id=":85_1_0" index="0" speed="13.89" length="2.41" shape="101.35,301.65 100.11,300.83 99.70,300.00"/>
    </edge>
    <edge id=":85_4" function="internal">
        <lane id=":85_4_0" index="0" speed="13.89" length="2.41" shape="99.70,300.00 100.11,299.18 101.35,298.35"/>
    </edge>
    <edge id=":85_2" function="internal">
        <lane id=":85_2_0" index="0" speed="13.89" length="3.85" shape="97.88,299.79 98.64,299.16 99.47,298.71 100.37,298.44 101.35,298.35"/>
    </edge>
    <edge id=":85_3" function="internal">
        <lane id=":85_3_0" index="0" speed="13.89" length="2.41" shape="97.88,299.79 99.34,299.49 100.21,299.79"/>
    </edge>
    <edge id=":85_5" function="internal">
        <lane id=":85_5_0" index="0" speed="13.89" length="2.41" shape="100.21,299.79 100.51,300.66 100.21,302.12"/>
    </edge>
    <edge id=":86_0" function="internal">
        <lane id=":86_0_0" index="0" speed="13.89" length="1.26" shape="399.79,302.12 399.54,301.91 399.27,301.77 398.97,301.68 398.65,301.65"/>
    </edge>
    <edge id=":86_1" function="internal">
        <lane id=":86_1_0" index="0" speed="13.89" length="2.41" shape="399.79,302.12 399.49,300.66 399.79,299.79"/>
    </edge>
    <edge id=":86_4" function="internal">
        <lane id=":86_4_0" index="0" speed="13.89" length="2.41" shape="399.79,299.79 400.66,299.49 402.12,299.79"/>
    </edge>
    <edge id=":86_2" function="internal">
        <lane id=":86_2_0" index="0" speed="13.89" length="3.85" shape="398.65,298.35 399.63,298.44 400.53,298.71 401.36,299.16 402.12,299.79"/>
    </edge>
    <edge id=":86_3" function="internal">
        <lane id=":86_3_0" index="0" speed="13.89" length="2.41" shape="398.65,298.35 399.89,299.17 400.30,300.00"/>
    </edge>
    <edge id=":86_5" function="internal">
        <lane id=":86_5_0" index="0" speed="13.89" length="2.41" shape="400.30,300.00 399.89,300.82 398.65,301.65"/>
    </edge>
    <edge id=":87_0" function="internal">
        <lane id=":87_0_0" index="0" speed="13.89" length="0.10" shape="198.35,400.00 198.35,400.00"/>
    </edge>
    <edge id=":87_1" function="internal">
        <lane id=":87_1_0" index="0" speed="13.89" length="2.41" shape="198.35,400.00 199.17,398.76 200.00,398.35"/>
    </edge>
    <edge id=":87_4" function="internal">
        <lane id=":87_4_0" index="0" speed="13.89" length="2.41" shape="200.00,398.35 200.82,398.76 201.65,400.00"/>
    </edge>
    <edge id=":87_2" function="internal">
        <lane id=":87_2_0" index="0" speed="13.89" length="0.10" shape="201.65,400.00 201.65,400.00"/>
    </edge>
    <edge id=":87_3" function="internal">
        <lane id=":87_3_0" index="0" speed="13.89" length="2.41" shape="201.65,400.00 200.83,401.24 200.00,401.65"/>
    </edge>
    <edge id=":87_5" function="internal">
        <lane id=":87_5_0" index="0" speed="13.89" length="2.41" shape="200.00,401.65 199.18,401.24 198.35,400.00"/>
    </edge>
    <edge id=":88_0" function="internal">
        <lane id=":88_0_0" index="0" speed="13.89" length="3.85" shape="299.79,402.12 299.16,401.36 298.71,400.53 298.44,399.63 298.35,398.65"/>
    </edge>
    <edge id=":88_1" function="internal">
        <lane id=":88_1_0" index="0" speed="13.89" length="2.41" shape="299.79,402.12 299.49,400.66 299.79,399.79"/>
    </edge>
    <edge id=":88_4" function="internal">
        <lane id=":88_4_0" index="0" speed="13.89" length="2.41" shape="299.79,399.79 300.66,399.49 302.12,399.79"/>
    </edge>
    <edge id=":88_2" function="internal">
        <lane id=":88_2_0" index="0" speed="13.89" length="1.26" shape="301.65,398.65 301.68,398.97 301.77,399.27 301.91,399.54 302.12,399.79"/>
    </edge>
    <edge id=":88_3" function="internal">
        <lane id=":88_3_0" index="0" speed="13.89" length="2.41" shape="301.65,398.65 300.83,399.89 300.00,400.30"/>
    </edge>
    <edge id=":88_5" function="internal">
        <lane id=":88_5_0" index="0" speed="13.89" length="2.41" shape="300.00,400.30 299.18,399.89 298.35,398.65"/>
    </edge>
    <edge id=":91_0" function="internal">
        <lane id=":91_0_0" index="0" speed="13.89" length="4.82" shape="198.35,0.00 199.17,-1.24 200.00,-1.65 200.82,-1.24 201.65,0.00"/>
    </edge>
    <edge id=":92_0" function="internal">
        <lane id=":92_0_0" index="0" speed="13.89" length="4.82" shape="398.83,-1.17 400.29,-1.46 401.17,-1.17 401.46,-0.29 401.17,1.17"/>
    </edge>
    <edge id=":93_0" function="internal">
        <lane id=":93_0_0" index="0" speed="13.89" length="4.82" shape="0.00,201.65 -1.24,200.83 -1.65,200.00 -1.24,199.18 0.00,198.35"/>
    </edge>
    <edge id=":94_0" function="internal">
        <lane id=":94_0_0" index="0" speed="13.89" length="4.82" shape="500.00,198.35 501.24,199.17 501.65,200.00 501.24,200.82 500.00,201.65"/>
    </edge>
    <edge id=":95_0" function="internal">
        <lane id=":95_0_0" index="0" speed="13.89" length="4.82" shape="1.17,401.17 -0.29,401.46 -1.17,401.17 -1.46,400.29 -1.17,398.83"/>
    </edge>
    <edge id=":96_0" function="internal">
        <lane id=":96_0_0" index="0" speed="13.89" length="4.82" shape="501.17,398.83 501.46,400.29 501.17,401.17 500.29,401.46 498.83,401.17"/>
    </edge>
    <edge id=":97_0" function="internal">
        <lane id=":97_0_0" index="0" speed="13.89" length="4.82" shape="201.65,500.00 200.83,501.24 200.00,501.65 199.18,501.24 198.35,500.00"/>
    </edge>
    <edge id=":98_0" function="internal">
        <lane id=":98_0_0" index="0" speed="13.89" length="4.82" shape="401.17,498.83 401.46,500.29 401.17,501.17 400.29,501.46 398.83,501.17"/>
    </edge>

    <edge id="D1" from="91" to="81" priority="3" type="a">
        <lane id="D1_0" index="0" speed="13.89" length="100.00" shape="201.65,0.00 201.65,100.00"/>
    </edge>
    <edge id="D10" from="95" to="85" priority="3" type="b">
        <lane id="D10_0" index="0" speed="13.89" length="140.08" shape="-1.17,398.83 97.88,299.79"/>
    </edge>
    <edge id="D11" from="96" to="86" priority="3" type="a">
        <lane id="D11_0" index="0" speed="13.89" length="140.08" shape="498.83,401.17 399.79,302.12"/>
    </edge>
    <edge id="D12" from="86" to="96" priority="3" type="b">
        <lane id="D12_0" index="0" speed="13.89" length="140.08" shape="402.12,299.79 501.17,398.83"/>
    </edge>
    <edge id="D13" from="87" to="97" priority="3" type="a">
        <lane id="D13_0" index="0" speed="13.89" length="100.00" shape="201.65,400.00 201.65,500.00"/>
    </edge>
    <edge id="D14" from="97" to="87" priority="3" type="b">
        <lane id="D14_0" index="0" speed="13.89" length="100.00" shape="198.35,500.00 198.35,400.00"/>
    </edge>
    <edge id="D15" from="88" to="98" priority="3" type="a">
        <lane id="D15_0" index="0" speed="13.89" length="140.08" shape="302.12,399.79 401.17,498.83"/>
    </edge>
    <edge id="D16" from="98" to="88" priority="3" type="b">
        <lane id="D16_0" index="0" speed="13.89" length="140.08" shape="398.83,501.17 299.79,402.12"/>
    </edge>
    <edge id="D2" from="81" to="91" priority="3" type="b">
        <lane id="D2_0" index="0" speed="13.89" length="100.00" shape="198.35,100.00 198.35,0.00"/>
    </edge>
    <edge id="D3" from="92" to="82" priority="3" type="a">
        <lane id="D3_0" index="0" speed="13.89" length="140.08" shape="401.17,1.17 302.12,100.21"/>
    </edge>
    <edge id="D4" from="82" to="92" priority="3" type="b">
        <lane id="D4_0" index="0" speed="13.89" length="140.08" shape="299.79,97.88 398.83,-1.17"/>
    </edge>
    <edge id="D5" from="83" to="93" priority="3" type="a">
        <lane id="D5_0" index="0" speed="13.89" length="100.00" shape="100.00,201.65 0.00,201.65"/>
    </edge>
    <edge id="D6" from="93" to="83" priority="3" type="b">
        <lane id="D6_0" index="0" speed="13.89" length="100.00" shape="0.00,198.35 100.00,198.35"/>
    </edge>
    <edge id="D7" from="94" to="84" priority="3" type="a">
        <lane id="D7_0" index="0" speed="13.89" length="100.00" shape="500.00,201.65 400.00,201.65"/>
    </edge>
    <edge id="D8" from="84" to="94" priority="3" type="b">
        <lane id="D8_0" index="0" speed="13.89" length="100.00" shape="400.00,198.35 500.00,198.35"/>
    </edge>
    <edge id="D9" from="85" to="95" priority="3" type="a">
        <lane id="D9_0" index="0" speed="13.89" length="140.08" shape="100.21,302.12 1.17,401.17"/>
    </edge>
    <edge id="L1" from="81" to="1" priority="3" type="a">
        <lane id="L1_0" index="0" speed="13.89" length="95.25" shape="201.65,100.00 201.65,195.25"/>
    </edge>
    <edge id="L10" from="85" to="3" priority="3" type="b">
        <lane id="L10_0" index="0" speed="13.89" length="93.90" shape="101.35,298.35 195.25,298.35"/>
    </edge>
    <edge id="L11" from="86" to="4" priority="3" type="a">
        <lane id="L11_0" index="0" speed="13.89" length="93.90" shape="398.65,301.65 304.75,301.65"/>
    </edge>
    <edge id="L12" from="4" to="86" priority="3" type="b">
        <lane id="L12_0" index="0" speed="13.89" length="93.90" shape="304.75,298.35 398.65,298.35"/>
    </edge>
    <edge id="L13" from="3" to="87" priority="3" type="a">
        <lane id="L13_0" index="0" speed="13.89" length="95.25" shape="201.65,304.75 201.65,400.00"/>
    </edge>
    <edge id="L14" from="87" to="3" priority="3" type="b">
        <lane id="L14_0" index="0" speed="13.89" length="95.25" shape="198.35,400.00 198.35,304.75"/>
    </edge>
    <edge id="L15" from="4" to="88" priority="3" type="a">
        <lane id="L15_0" index="0" speed="13.89" length="93.90" shape="301.65,304.75 301.65,398.65"/>
    </edge>
    <edge id="L16" from="88" to="4" priority="3" type="b">
        <lane id="L16_0" index="0" speed="13.89" length="93.90" shape="298.35,398.65 298.35,304.75"/>
    </edge>
    <edge id="L2" from="1" to="81" priority="3" type="b">
        <lane id="L2_0" index="0" speed="13.89" length="95.25" shape="198.35,195.25 198.35,100.00"/>
    </edge>
    <edge id="L3" from="82" to="2" priority="3" type="a">
        <lane id="L3_0" index="0" speed="13.89" length="93.90" shape="301.65,101.35 301.65,195.25"/>
    </edge>
    <edge id="L4" from="2" to="82" priority="3" type="b">
        <lane id="L4_0" index="0" speed="13.89" length="93.90" shape="298.35,195.25 298.35,101.35"/>
    </edge>
    <edge id="L5" from="1" to="83" priority="3" type="a">
        <lane id="L5_0" index="0" speed="13.89" length="95.25" shape="195.25,201.65 100.00,201.65"/>
    </edge>
    <edge id="L6" from="83" to="1" priority="3" type="b">
        <lane id="L6_0" index="0" speed="13.89" length="95.25" shape="100.00,198.35 195.25,198.35"/>
    </edge>
    <edge id="L61" from="2" to="1" priority="3" type="a">
        <lane id="L61_0" index="0" speed="13.89" length="90.50" shape="295.25,201.65 204.75,201.65"/>
    </edge>
    <edge id="L62" from="1" to="2" priority="3" type="b">
        <lane id="L62_0" index="0" speed="13.89" length="90.50" shape="204.75,198.35 295.25,198.35"/>
    </edge>
    <edge id="L63" from="1" to="3" priority="3" type="a">
        <lane id="L63_0" index="0" speed="13.89" length="90.50" shape="201.65,204.75 201.65,295.25"/>
    </edge>
    <edge id="L64" from="3" to="1" priority="3" type="b">
        <lane id="L64_0" index="0" speed="13.89" length="90.50" shape="198.35,295.25 198.35,204.75"/>
    </edge>
    <edge id="L65" from="2" to="4" priority="3" type="a">
        <lane id="L65_0" index="0" speed="13.89" length="90.50" shape="301.65,204.75 301.65,295.25"/>
    </edge>
    <edge id="L66" from="4" to="2" priority="3" type="b">
        <lane id="L66_0" index="0" speed="13.89" length="90.50" shape="298.35,295.25 298.35,204.75"/>
    </edge>
    <edge id="L67" from="4" to="3" priority="3" type="a">
        <lane id="L67_0" index="0" speed="13.89" length="90.50" shape="295.25,301.65 204.75,301.65"/>
    </edge>
    <edge id="L68" from="3" to="4" priority="3" type="b">
        <lane id="L68_0" index="0" speed="13.89" length="90.50" shape="204.75,298.35 295.25,298.35"/>
    </edge>
    <edge id="L7" from="84" to="2" priority="3" type="a">
        <lane id="L7_0" index="0" speed="13.89" length="95.25" shape="400.00,201.65 304.75,201.65"/>
    </edge>
    <edge id="L8" from="2" to="84" priority="3" type="b">
        <lane id="L8_0" index="0" speed="13.89" length="95.25" shape="304.75,198.35 400.00,198.35"/>
    </edge>
    <edge id="L9" from="3" to="85" priority="3" type="a">
        <lane id="L9_0" index="0" speed="13.89" length="93.90" shape="195.25,301.65 101.35,301.65"/>
    </edge>

    <tlLogic id="1" type="static" programID="0" offset="0">
        <phase duration="31" state="GGgrrrGGgrrr"/>
        <phase duration="4" state="yygrrryygrrr"/>
        <phase duration="6" state="rrGrrrrrGrrr"/>
        <phase duration="4" state="rryrrrrryrrr"/>
        <phase duration="31" state="rrrGGgrrrGGg"/>
        <phase duration="4" state="rrryygrrryyg"/>
        <phase duration="6" state="rrrrrGrrrrrG"/>
        <phase duration="4" state="rrrrryrrrrry"/>
    </tlLogic>
    <tlLogic id="2" type="static" programID="0" offset="0">
        <phase duration="31" state="rrrGGgrrrGGg"/>
        <phase duration="4" state="rrryygrrryyg"/>
        <phase duration="6" state="rrrrrGrrrrrG"/>
        <phase duration="4" state="rrrrryrrrrry"/>
        <phase duration="31" state="GGgrrrGGgrrr"/>
        <phase duration="4" state="yygrrryygrrr"/>
        <phase duration="6" state="rrGrrrrrGrrr"/>
        <phase duration="4" state="rryrrrrryrrr"/>
    </tlLogic>