<?xml version="1.0" encoding="UTF-8"?>
<nodes xmlns:xsi="http://www.w3.org/2001/XMLSchema-instance" xsi:noNamespaceSchemaLocation="http://sumo.dlr.de/xsd/nodes_file.xsd">
   <node id="1" x="0.0" y="0.0" type="traffic_light"/>
   <node id="2" x="100.0" y="0.0" type="traffic_light"/>
   <node id="3" x="0.0" y="100.0" type="traffic_light"/>
   <node id="4" x="100.0" y="100.0" type="traffic_light"/>

   <node id="81" x="0.0" y="-100.0" />
   <node id="82" x="100.0" y="-100.0" />
   <node id="83" x="-100.0" y="0.0" />
   <node id="84" x="200.0" y="0.0" />
   <node id="85" x="-100.0" y="100.0" />
   <node id="86" x="200.0" y="100.0" />
   <node id="87" x="0.0" y="200.0" />
   <node id="88" x="100.0" y="200.0" />

   <node id="91" x="0.0" y="-200.0" />
   <node id="92" x="200.0" y="-200.0" />
   <node id="93" x="-200.0" y="0.0" />
   <node id="94" x="300.0" y="0.0" />
   <node id="95" x="-200.0" y="200.0" />
   <node id="96" x="300.0" y="200.0" />
   <node id="97" x="0.0" y="300.0" />
   <node id="98" x="200.0" y="300.0" />

</nodes>
